MODEL 1
REMARK VINA RESULT:      -5.6      0.000      0.000
REMARK  6 active torsions:
REMARK  status: ('A' for Active; 'I' for Inactive)
REMARK    1  A    between atoms: O_2  and  C_8 
REMARK    2  A    between atoms: O_3  and  C_10 
REMARK    3  A    between atoms: O_4  and  C_12 
REMARK    4  A    between atoms: O_5  and  C_13 
REMARK    5  A    between atoms: N_7  and  C_9 
REMARK       I    between atoms: N_7  and  C_14 
REMARK    6  A    between atoms: C_11  and  C_13 
ROOT
HETATM    1  O   UNK     0       0.263   0.960   5.667  0.00  0.00    -0.349 OA
HETATM    2  C   UNK     0      -2.554   1.211   5.188  0.00  0.00     0.177 C 
HETATM    3  C   UNK     0      -1.994   0.839   6.564  0.00  0.00     0.170 C 
HETATM    4  C   UNK     0      -1.508   1.928   4.332  0.00  0.00     0.180 C 
HETATM    5  C   UNK     0      -0.189   1.151   4.326  0.00  0.00     0.179 C 
HETATM    6  C   UNK     0      -0.627   0.156   6.441  0.00  0.00     0.282 C 
ENDROOT
BRANCH   3   7
HETATM    7  N   UNK     0      -2.925  -0.019   7.269  0.00  0.00    -0.349 N 
HETATM    8  C   UNK     0      -3.076  -0.002   8.644  0.00  0.00     0.214 C 
HETATM    9  O   UNK     0      -2.462   0.717   9.428  0.00  0.00    -0.274 OA
HETATM   10  C   UNK     0      -4.127  -0.972   9.112  0.00  0.00     0.117 C 
HETATM   11  H   UNK     0      -3.538  -0.611   6.715  0.00  0.00     0.163 HD
ENDBRANCH   3   7
BRANCH   2  12
HETATM   12  O   UNK     0      -3.675   2.077   5.372  0.00  0.00    -0.391 OA
HETATM   13  H   UNK     0      -4.398   1.557   5.762  0.00  0.00     0.210 HD
ENDBRANCH   2  12
BRANCH   6  14
HETATM   14  O   UNK     0      -0.092  -0.015   7.752  0.00  0.00    -0.369 OA
HETATM   15  H   UNK     0       0.231   0.855   8.044  0.00  0.00     0.212 HD
ENDBRANCH   6  14
BRANCH   4  16
HETATM   16  O   UNK     0      -2.025   2.043   3.009  0.00  0.00    -0.390 OA
HETATM   17  H   UNK     0      -1.352   1.702   2.397  0.00  0.00     0.210 HD
ENDBRANCH   4  16
BRANCH   5  18
HETATM   18  C   UNK     0       0.915   1.892   3.579  0.00  0.00     0.198 C 
BRANCH  18  19
HETATM   19  O   UNK     0       0.545   3.254   3.462  0.00  0.00    -0.398 OA
HETATM   20  H   UNK     0       1.272   3.718   3.012  0.00  0.00     0.209 HD
ENDBRANCH  18  19
ENDBRANCH   5  18
TORSDOF 6
ENDMDL
MODEL 2
REMARK VINA RESULT:      -5.3      2.070      4.043
REMARK  6 active torsions:
REMARK  status: ('A' for Active; 'I' for Inactive)
REMARK    1  A    between atoms: O_2  and  C_8 
REMARK    2  A    between atoms: O_3  and  C_10 
REMARK    3  A    between atoms: O_4  and  C_12 
REMARK    4  A    between atoms: O_5  and  C_13 
REMARK    5  A    between atoms: N_7  and  C_9 
REMARK       I    between atoms: N_7  and  C_14 
REMARK    6  A    between atoms: C_11  and  C_13 
ROOT
HETATM    1  O   UNK     0      -1.343   1.654   3.991  0.00  0.00    -0.349 OA
HETATM    2  C   UNK     0      -1.207   0.364   6.550  0.00  0.00     0.177 C 
HETATM    3  C   UNK     0       0.043   0.886   5.836  0.00  0.00     0.170 C 
HETATM    4  C   UNK     0      -2.473   1.062   6.049  0.00  0.00     0.180 C 
HETATM    5  C   UNK     0      -2.527   1.052   4.519  0.00  0.00     0.179 C 
HETATM    6  C   UNK     0      -0.161   0.924   4.317  0.00  0.00     0.282 C 
ENDROOT
BRANCH   3   7
HETATM    7  N   UNK     0       1.190   0.067   6.171  0.00  0.00    -0.349 N 
HETATM    8  C   UNK     0       1.908   0.215   7.344  0.00  0.00     0.214 C 
HETATM    9  O   UNK     0       1.679   1.034   8.232  0.00  0.00    -0.274 OA
HETATM   10  C   UNK     0       3.032  -0.779   7.453  0.00  0.00     0.117 C 
HETATM   11  H   UNK     0       1.433  -0.693   5.540  0.00  0.00     0.163 HD
ENDBRANCH   3   7
BRANCH   2  12
HETATM   12  O   UNK     0      -1.067   0.609   7.950  0.00  0.00    -0.391 OA
HETATM   13  H   UNK     0      -1.766   1.228   8.220  0.00  0.00     0.210 HD
ENDBRANCH   2  12
BRANCH   6  14
HETATM   14  O   UNK     0       0.969   1.567   3.730  0.00  0.00    -0.369 OA
HETATM   15  H   UNK     0       0.680   1.927   2.874  0.00  0.00     0.212 HD
ENDBRANCH   6  14
BRANCH   4  16
HETATM   16  O   UNK     0      -3.599   0.378   6.592  0.00  0.00    -0.390 OA
HETATM   17  H   UNK     0      -3.580   0.494   7.556  0.00  0.00     0.210 HD
ENDBRANCH   4  16
BRANCH   5  18
HETATM   18  C   UNK     0      -3.714   1.841   3.977  0.00  0.00     0.198 C 
BRANCH  18  19
HETATM   19  O   UNK     0      -3.961   2.935   4.841  0.00  0.00    -0.398 OA
HETATM   20  H   UNK     0      -4.392   3.632   4.317  0.00  0.00     0.209 HD
ENDBRANCH  18  19
ENDBRANCH   5  18
TORSDOF 6
ENDMDL
MODEL 3
REMARK VINA RESULT:      -5.1      3.172      5.404
REMARK  6 active torsions:
REMARK  status: ('A' for Active; 'I' for Inactive)
REMARK    1  A    between atoms: O_2  and  C_8 
REMARK    2  A    between atoms: O_3  and  C_10 
REMARK    3  A    between atoms: O_4  and  C_12 
REMARK    4  A    between atoms: O_5  and  C_13 
REMARK    5  A    between atoms: N_7  and  C_9 
REMARK       I    between atoms: N_7  and  C_14 
REMARK    6  A    between atoms: C_11  and  C_13 
ROOT
HETATM    1  O   UNK     0       0.096  -2.746   8.910  0.00  0.00    -0.349 OA
HETATM    2  C   UNK     0       1.131  -0.254   7.937  0.00  0.00     0.177 C 
HETATM    3  C   UNK     0      -0.373  -0.512   8.070  0.00  0.00     0.170 C 
HETATM    4  C   UNK     0       1.943  -1.183   8.841  0.00  0.00     0.180 C 
HETATM    5  C   UNK     0       1.499  -2.636   8.662  0.00  0.00     0.179 C 
HETATM    6  C   UNK     0      -0.689  -2.009   7.973  0.00  0.00     0.282 C 
ENDROOT
BRANCH   3   7
HETATM    7  N   UNK     0      -1.100   0.225   7.057  0.00  0.00    -0.349 N 
HETATM    8  C   UNK     0      -2.352   0.771   7.272  0.00  0.00     0.214 C 
HETATM    9  O   UNK     0      -2.998   0.706   8.316  0.00  0.00    -0.274 OA
HETATM   10  C   UNK     0      -2.868   1.505   6.063  0.00  0.00     0.117 C 
HETATM   11  H   UNK     0      -0.633   0.401   6.170  0.00  0.00     0.163 HD
ENDBRANCH   3   7
BRANCH   2  12
HETATM   12  O   UNK     0       1.395   1.101   8.308  0.00  0.00    -0.391 OA
HETATM   13  H   UNK     0       2.010   1.478   7.657  0.00  0.00     0.210 HD
ENDBRANCH   2  12
BRANCH   6  14
HETATM   14  O   UNK     0      -2.073  -2.193   8.267  0.00  0.00    -0.369 OA
HETATM   15  H   UNK     0      -2.142  -2.357   9.223  0.00  0.00     0.212 HD
ENDBRANCH   6  14
BRANCH   4  16
HETATM   16  O   UNK     0       3.319  -1.036   8.503  0.00  0.00    -0.390 OA
HETATM   17  H   UNK     0       3.374  -0.872   7.547  0.00  0.00     0.210 HD
ENDBRANCH   4  16
BRANCH   5  18
HETATM   18  C   UNK     0       2.203  -3.580   9.631  0.00  0.00     0.198 C 
BRANCH  18  19
HETATM   19  O   UNK     0       3.289  -4.191   8.958  0.00  0.00    -0.398 OA
HETATM   20  H   UNK     0       2.936  -4.944   8.454  0.00  0.00     0.209 HD
ENDBRANCH  18  19
ENDBRANCH   5  18
TORSDOF 6
ENDMDL
MODEL 4
REMARK VINA RESULT:      -5.0      2.303      4.348
REMARK  6 active torsions:
REMARK  status: ('A' for Active; 'I' for Inactive)
REMARK    1  A    between atoms: O_2  and  C_8 
REMARK    2  A    between atoms: O_3  and  C_10 
REMARK    3  A    between atoms: O_4  and  C_12 
REMARK    4  A    between atoms: O_5  and  C_13 
REMARK    5  A    between atoms: N_7  and  C_9 
REMARK       I    between atoms: N_7  and  C_14 
REMARK    6  A    between atoms: C_11  and  C_13 
ROOT
HETATM    1  O   UNK     0      -3.001   0.802   3.126  0.00  0.00    -0.349 OA
HETATM    2  C   UNK     0      -3.065   1.226   5.962  0.00  0.00     0.177 C 
HETATM    3  C   UNK     0      -1.754   0.998   5.204  0.00  0.00     0.170 C 
HETATM    4  C   UNK     0      -4.172   1.727   5.032  0.00  0.00     0.180 C 
HETATM    5  C   UNK     0      -4.269   0.846   3.784  0.00  0.00     0.179 C 
HETATM    6  C   UNK     0      -1.987   0.191   3.922  0.00  0.00     0.282 C 
ENDROOT
BRANCH   3   7
HETATM    7  N   UNK     0      -0.793   0.328   6.056  0.00  0.00    -0.349 N 
HETATM    8  C   UNK     0       0.570   0.556   5.983  0.00  0.00     0.214 C 
HETATM    9  O   UNK     0       1.132   1.331   5.212  0.00  0.00    -0.274 OA
HETATM   10  C   UNK     0       1.336  -0.250   6.997  0.00  0.00     0.117 C 
HETATM   11  H   UNK     0      -1.149  -0.288   6.782  0.00  0.00     0.163 HD
ENDBRANCH   3   7
BRANCH   2  12
HETATM   12  O   UNK     0      -2.839   2.202   6.980  0.00  0.00    -0.391 OA
HETATM   13  H   UNK     0      -1.978   2.622   6.811  0.00  0.00     0.210 HD
ENDBRANCH   2  12
BRANCH   6  14
HETATM   14  O   UNK     0      -0.765   0.155   3.187  0.00  0.00    -0.369 OA
HETATM   15  H   UNK     0      -0.212  -0.538   3.587  0.00  0.00     0.212 HD
ENDBRANCH   6  14
BRANCH   4  16
HETATM   16  O   UNK     0      -5.400   1.704   5.755  0.00  0.00    -0.390 OA
HETATM   17  H   UNK     0      -5.627   0.774   5.924  0.00  0.00     0.210 HD
ENDBRANCH   4  16
BRANCH   5  18
HETATM   18  C   UNK     0      -5.281   1.381   2.777  0.00  0.00     0.198 C 
BRANCH  18  19
HETATM   19  O   UNK     0      -6.583   1.180   3.295  0.00  0.00    -0.398 OA
HETATM   20  H   UNK     0      -7.197   1.137   2.542  0.00  0.00     0.209 HD
ENDBRANCH  18  19
ENDBRANCH   5  18
TORSDOF 6
ENDMDL
MODEL 5
REMARK VINA RESULT:      -5.0      4.188      6.528
REMARK  6 active torsions:
REMARK  status: ('A' for Active; 'I' for Inactive)
REMARK    1  A    between atoms: O_2  and  C_8 
REMARK    2  A    between atoms: O_3  and  C_10 
REMARK    3  A    between atoms: O_4  and  C_12 
REMARK    4  A    between atoms: O_5  and  C_13 
REMARK    5  A    between atoms: N_7  and  C_9 
REMARK       I    between atoms: N_7  and  C_14 
REMARK    6  A    between atoms: C_11  and  C_13 
ROOT
HETATM    1  O   UNK     0      -7.088   3.075   5.837  0.00  0.00    -0.349 OA
HETATM    2  C   UNK     0      -5.971   1.999   3.424  0.00  0.00     0.177 C 
HETATM    3  C   UNK     0      -5.133   2.190   4.692  0.00  0.00     0.170 C 
HETATM    4  C   UNK     0      -7.465   1.918   3.744  0.00  0.00     0.180 C 
HETATM    5  C   UNK     0      -7.886   3.076   4.652  0.00  0.00     0.179 C 
HETATM    6  C   UNK     0      -5.705   3.308   5.571  0.00  0.00     0.282 C 
ENDROOT
BRANCH   3   7
HETATM    7  N   UNK     0      -3.756   2.474   4.345  0.00  0.00    -0.349 N 
HETATM    8  C   UNK     0      -2.802   1.488   4.168  0.00  0.00     0.214 C 
HETATM    9  O   UNK     0      -2.986   0.278   4.279  0.00  0.00    -0.274 OA
HETATM   10  C   UNK     0      -1.462   2.056   3.787  0.00  0.00     0.117 C 
HETATM   11  H   UNK     0      -3.502   3.441   4.160  0.00  0.00     0.163 HD
ENDBRANCH   3   7
BRANCH   2  12
HETATM   12  O   UNK     0      -5.567   0.783   2.791  0.00  0.00    -0.391 OA
HETATM   13  H   UNK     0      -4.686   0.546   3.127  0.00  0.00     0.210 HD
ENDBRANCH   2  12
BRANCH   6  14
HETATM   14  O   UNK     0      -4.982   3.324   6.801  0.00  0.00    -0.369 OA
HETATM   15  H   UNK     0      -5.639   3.308   7.518  0.00  0.00     0.212 HD
ENDBRANCH   6  14
BRANCH   4  16
HETATM   16  O   UNK     0      -8.183   1.962   2.515  0.00  0.00    -0.390 OA
HETATM   17  H   UNK     0      -9.099   2.214   2.715  0.00  0.00     0.210 HD
ENDBRANCH   4  16
BRANCH   5  18
HETATM   18  C   UNK     0      -9.343   2.967   5.090  0.00  0.00     0.198 C 
BRANCH  18  19
HETATM   19  O   UNK     0      -9.714   1.601   5.087  0.00  0.00    -0.398 OA
HETATM   20  H   UNK     0     -10.502   1.509   5.649  0.00  0.00     0.209 HD
ENDBRANCH  18  19
ENDBRANCH   5  18
TORSDOF 6
ENDMDL
MODEL 6
REMARK VINA RESULT:      -5.0      2.300      4.783
REMARK  6 active torsions:
REMARK  status: ('A' for Active; 'I' for Inactive)
REMARK    1  A    between atoms: O_2  and  C_8 
REMARK    2  A    between atoms: O_3  and  C_10 
REMARK    3  A    between atoms: O_4  and  C_12 
REMARK    4  A    between atoms: O_5  and  C_13 
REMARK    5  A    between atoms: N_7  and  C_9 
REMARK       I    between atoms: N_7  and  C_14 
REMARK    6  A    between atoms: C_11  and  C_13 
ROOT
HETATM    1  O   UNK     0       1.829  -0.082   6.546  0.00  0.00    -0.349 OA
HETATM    2  C   UNK     0      -0.733  -0.430   7.789  0.00  0.00     0.177 C 
HETATM    3  C   UNK     0      -0.591   0.040   6.338  0.00  0.00     0.170 C 
HETATM    4  C   UNK     0       0.517  -1.173   8.263  0.00  0.00     0.180 C 
HETATM    5  C   UNK     0       1.779  -0.367   7.946  0.00  0.00     0.179 C 
HETATM    6  C   UNK     0       0.751   0.746   6.113  0.00  0.00     0.282 C 
ENDROOT
BRANCH   3   7
HETATM    7  N   UNK     0      -1.689   0.917   5.985  0.00  0.00    -0.349 N 
HETATM    8  C   UNK     0      -2.357   0.843   4.776  0.00  0.00     0.214 C 
HETATM    9  O   UNK     0      -2.118   0.051   3.867  0.00  0.00    -0.274 OA
HETATM   10  C   UNK     0      -3.471   1.850   4.680  0.00  0.00     0.117 C 
HETATM   11  H   UNK     0      -2.021   1.571   6.690  0.00  0.00     0.163 HD
ENDBRANCH   3   7
BRANCH   2  12
HETATM   12  O   UNK     0      -1.855  -1.310   7.874  0.00  0.00    -0.391 OA
HETATM   13  H   UNK     0      -1.631  -2.132   7.406  0.00  0.00     0.210 HD
ENDBRANCH   2  12
BRANCH   6  14
HETATM   14  O   UNK     0       0.888   1.011   4.717  0.00  0.00    -0.369 OA
HETATM   15  H   UNK     0      -0.007   1.005   4.337  0.00  0.00     0.212 HD
ENDBRANCH   6  14
BRANCH   4  16
HETATM   16  O   UNK     0       0.400  -1.382   9.668  0.00  0.00    -0.390 OA
HETATM   17  H   UNK     0      -0.057  -2.228   9.805  0.00  0.00     0.210 HD
ENDBRANCH   4  16
BRANCH   5  18
HETATM   18  C   UNK     0       3.054  -1.126   8.297  0.00  0.00     0.198 C 
BRANCH  18  19
HETATM   19  O   UNK     0       2.737  -2.498   8.439  0.00  0.00    -0.398 OA
HETATM   20  H   UNK     0       1.830  -2.627   8.112  0.00  0.00     0.209 HD
ENDBRANCH  18  19
ENDBRANCH   5  18
TORSDOF 6
ENDMDL
MODEL 7
REMARK VINA RESULT:      -4.9      2.578      5.406
REMARK  6 active torsions:
REMARK  status: ('A' for Active; 'I' for Inactive)
REMARK    1  A    between atoms: O_2  and  C_8 
REMARK    2  A    between atoms: O_3  and  C_10 
REMARK    3  A    between atoms: O_4  and  C_12 
REMARK    4  A    between atoms: O_5  and  C_13 
REMARK    5  A    between atoms: N_7  and  C_9 
REMARK       I    between atoms: N_7  and  C_14 
REMARK    6  A    between atoms: C_11  and  C_13 
ROOT
HETATM    1  O   UNK     0      -3.475   1.260   3.627  0.00  0.00    -0.349 OA
HETATM    2  C   UNK     0      -0.968   0.592   4.850  0.00  0.00     0.177 C 
HETATM    3  C   UNK     0      -1.147   0.624   3.330  0.00  0.00     0.170 C 
HETATM    4  C   UNK     0      -2.027   1.440   5.558  0.00  0.00     0.180 C 
HETATM    5  C   UNK     0      -3.427   1.094   5.046  0.00  0.00     0.179 C 
HETATM    6  C   UNK     0      -2.606   0.363   2.937  0.00  0.00     0.282 C 
ENDROOT
BRANCH   3   7
HETATM    7  N   UNK     0      -0.273  -0.346   2.702  0.00  0.00    -0.349 N 
HETATM    8  C   UNK     0       1.047  -0.082   2.387  0.00  0.00     0.214 C 
HETATM    9  O   UNK     0       1.639   0.976   2.588  0.00  0.00    -0.274 OA
HETATM   10  C   UNK     0       1.733  -1.270   1.768  0.00  0.00     0.117 C 
HETATM   11  H   UNK     0      -0.636  -1.284   2.549  0.00  0.00     0.163 HD
ENDBRANCH   3   7
BRANCH   2  12
HETATM   12  O   UNK     0       0.326   1.109   5.167  0.00  0.00    -0.391 OA
HETATM   13  H   UNK     0       0.949   0.363   5.201  0.00  0.00     0.210 HD
ENDBRANCH   2  12
BRANCH   6  14
HETATM   14  O   UNK     0      -2.734   0.567   1.531  0.00  0.00    -0.369 OA
HETATM   15  H   UNK     0      -2.633   1.521   1.371  0.00  0.00     0.212 HD
ENDBRANCH   6  14
BRANCH   4  16
HETATM   16  O   UNK     0      -1.932   1.187   6.957  0.00  0.00    -0.390 OA
HETATM   17  H   UNK     0      -1.597   1.993   7.383  0.00  0.00     0.210 HD
ENDBRANCH   4  16
BRANCH   5  18
HETATM   18  C   UNK     0      -4.501   1.999   5.641  0.00  0.00     0.198 C 
BRANCH  18  19
HETATM   19  O   UNK     0      -4.492   3.231   4.943  0.00  0.00    -0.398 OA
HETATM   20  H   UNK     0      -4.489   3.944   5.604  0.00  0.00     0.209 HD
ENDBRANCH  18  19
ENDBRANCH   5  18
TORSDOF 6
ENDMDL
MODEL 8
REMARK VINA RESULT:      -4.9      5.151      6.735
REMARK  6 active torsions:
REMARK  status: ('A' for Active; 'I' for Inactive)
REMARK    1  A    between atoms: O_2  and  C_8 
REMARK    2  A    between atoms: O_3  and  C_10 
REMARK    3  A    between atoms: O_4  and  C_12 
REMARK    4  A    between atoms: O_5  and  C_13 
REMARK    5  A    between atoms: N_7  and  C_9 
REMARK       I    between atoms: N_7  and  C_14 
REMARK    6  A    between atoms: C_11  and  C_13 
ROOT
HETATM    1  O   UNK     0      -5.348   0.614   2.123  0.00  0.00    -0.349 OA
HETATM    2  C   UNK     0      -6.400   2.635   3.866  0.00  0.00     0.177 C 
HETATM    3  C   UNK     0      -7.307   1.762   2.994  0.00  0.00     0.170 C 
HETATM    4  C   UNK     0      -5.042   1.972   4.104  0.00  0.00     0.180 C 
HETATM    5  C   UNK     0      -4.435   1.493   2.783  0.00  0.00     0.179 C 
HETATM    6  C   UNK     0      -6.564   1.260   1.750  0.00  0.00     0.282 C 
ENDROOT
BRANCH   3   7
HETATM    7  N   UNK     0      -8.494   2.499   2.611  0.00  0.00    -0.349 N 
HETATM    8  C   UNK     0      -9.695   2.404   3.289  0.00  0.00     0.214 C 
HETATM    9  O   UNK     0      -9.913   1.704   4.276  0.00  0.00    -0.274 OA
HETATM   10  C   UNK     0     -10.755   3.294   2.698  0.00  0.00     0.117 C 
HETATM   11  H   UNK     0      -8.414   3.165   1.846  0.00  0.00     0.163 HD
ENDBRANCH   3   7
BRANCH   2  12
HETATM   12  O   UNK     0      -7.041   2.841   5.126  0.00  0.00    -0.391 OA
HETATM   13  H   UNK     0      -6.469   3.412   5.667  0.00  0.00     0.210 HD
ENDBRANCH   2  12
BRANCH   6  14
HETATM   14  O   UNK     0      -7.407   0.329   1.072  0.00  0.00    -0.369 OA
HETATM   15  H   UNK     0      -7.785   0.793   0.305  0.00  0.00     0.212 HD
ENDBRANCH   6  14
BRANCH   4  16
HETATM   16  O   UNK     0      -4.188   2.926   4.728  0.00  0.00    -0.390 OA
HETATM   17  H   UNK     0      -3.841   3.512   4.035  0.00  0.00     0.210 HD
ENDBRANCH   4  16
BRANCH   5  18
HETATM   18  C   UNK     0      -3.136   0.722   2.989  0.00  0.00     0.198 C 
BRANCH  18  19
HETATM   19  O   UNK     0      -3.154   0.145   4.281  0.00  0.00    -0.398 OA
HETATM   20  H   UNK     0      -3.010  -0.811   4.178  0.00  0.00     0.209 HD
ENDBRANCH  18  19
ENDBRANCH   5  18
TORSDOF 6
ENDMDL
MODEL 9
REMARK VINA RESULT:      -4.9      5.378      6.960
REMARK  6 active torsions:
REMARK  status: ('A' for Active; 'I' for Inactive)
REMARK    1  A    between atoms: O_2  and  C_8 
REMARK    2  A    between atoms: O_3  and  C_10 
REMARK    3  A    between atoms: O_4  and  C_12 
REMARK    4  A    between atoms: O_5  and  C_13 
REMARK    5  A    between atoms: N_7  and  C_9 
REMARK       I    between atoms: N_7  and  C_14 
REMARK    6  A    between atoms: C_11  and  C_13 
ROOT
HETATM    1  O   UNK     0      -7.102   1.645   0.630  0.00  0.00    -0.349 OA
HETATM    2  C   UNK     0      -5.542   1.585   3.037  0.00  0.00     0.177 C 
HETATM    3  C   UNK     0      -7.048   1.866   3.052  0.00  0.00     0.170 C 
HETATM    4  C   UNK     0      -5.122   0.842   1.768  0.00  0.00     0.180 C 
HETATM    5  C   UNK     0      -5.681   1.537   0.524  0.00  0.00     0.179 C 
HETATM    6  C   UNK     0      -7.511   2.469   1.721  0.00  0.00     0.282 C 
ENDROOT
BRANCH   3   7
HETATM    7  N   UNK     0      -7.382   2.749   4.150  0.00  0.00    -0.349 N 
HETATM    8  C   UNK     0      -8.546   2.631   4.887  0.00  0.00     0.214 C 
HETATM    9  O   UNK     0      -9.427   1.791   4.716  0.00  0.00    -0.274 OA
HETATM   10  C   UNK     0      -8.631   3.657   5.985  0.00  0.00     0.117 C 
HETATM   11  H   UNK     0      -6.693   3.444   4.428  0.00  0.00     0.163 HD
ENDBRANCH   3   7
BRANCH   2  12
HETATM   12  O   UNK     0      -5.219   0.781   4.173  0.00  0.00    -0.391 OA
HETATM   13  H   UNK     0      -4.947  -0.097   3.854  0.00  0.00     0.210 HD
ENDBRANCH   2  12
BRANCH   6  14
HETATM   14  O   UNK     0      -8.936   2.554   1.741  0.00  0.00    -0.369 OA
HETATM   15  H   UNK     0      -9.172   3.450   1.446  0.00  0.00     0.212 HD
ENDBRANCH   6  14
BRANCH   4  16
HETATM   16  O   UNK     0      -3.698   0.812   1.724  0.00  0.00    -0.390 OA
HETATM   17  H   UNK     0      -3.435   0.349   0.912  0.00  0.00     0.210 HD
ENDBRANCH   4  16
BRANCH   5  18
HETATM   18  C   UNK     0      -5.382   0.761  -0.755  0.00  0.00     0.198 C 
BRANCH  18  19
HETATM   19  O   UNK     0      -4.215   1.300  -1.347  0.00  0.00    -0.398 OA
HETATM   20  H   UNK     0      -4.093   0.864  -2.208  0.00  0.00     0.209 HD
ENDBRANCH  18  19
ENDBRANCH   5  18
TORSDOF 6
ENDMDL
